
**** 05/28/25 12:02:51 **** PSpice 23.1.0 (30 January 2024) *** ID# 0 ********

 ** Profile: "SCHEMATIC1-simulação comparador"  [ c:\cds_spb_home\cdssetup\projects\circuito comparador\circuito comparador-pspicefil


 ****     CIRCUIT DESCRIPTION


******************************************************************************




** Creating circuit file "simulação comparador.cir" 
** WARNING: THIS AUTOMATICALLY GENERATED FILE MAY BE OVERWRITTEN BY SUBSEQUENT SIMULATIONS

*Libraries: 
* Profile Libraries :
* Local Libraries :
* From [PSPICE NETLIST] section of C:\cds_spb_home\cdssetup\OrCAD_PSpiceTIPSpice_Install\23.1.0\PSpice.ini file:
.lib "nom_pspti.lib" 
.lib "nom.lib" 

*Analysis directives: 
.TRAN  0 2m 0 
.STEP LIN T 5 40 1 
----------$
ERROR(ORPSIM-16063): Must be 'I' or 'V'
.OPTIONS ADVCONV
.OPTIONS FILEMODELSEARCH
.PROBE64 V(alias(*)) I(alias(*)) W(alias(*)) D(alias(*)) NOISE(alias(*)) 
.INC "..\SCHEMATIC1.net" 



**** INCLUDING SCHEMATIC1.net ****
* source CIRCUITO COMPARADOR
.EXTERNAL OUTPUT Vee
.EXTERNAL OUTPUT Vcc
.EXTERNAL OUTPUT Vdd
V_V1         VCC 0 5Vdc
V_V3         VEE 0 -15Vdc
V_V2         VDD 0 15Vdc
R_R1         N03954 N03574  820 TC=0,0 
R_Rf         N03574 N03596  270k TC=0,0 
R_R2         N03574 N03588  10k TC=0,0 
R_R3         N035231 N03592  10k TC=0,0 
X_U1         N03588 N03592 VDD VEE N03596 TL082
V_V4         N035231 0 2.5Vdc
V_V5         N03954 0  
+PULSE 0 5 0 0.5m 0.5m 0 1m
.PARAM  t=5

**** RESUMING "simulação comparador.cir" ****
.END
