
**** 06/20/25 17:26:00 **** PSpice 23.1.0 (30 January 2024) *** ID# 0 ********

 ** Profile: "SCHEMATIC1-Simulaçao LEDs"  [ C:\cds_spb_home\cdssetup\projects\Circuito LEDs\circuito leds-pspicefiles\schematic1\simu


 ****     CIRCUIT DESCRIPTION


******************************************************************************




** Creating circuit file "Simulaçao LEDs.cir" 
** WARNING: THIS AUTOMATICALLY GENERATED FILE MAY BE OVERWRITTEN BY SUBSEQUENT SIMULATIONS

*Libraries: 
* Profile Libraries :
* Local Libraries :
* From [PSPICE NETLIST] section of C:\cds_spb_home\cdssetup\OrCAD_PSpiceTIPSpice_Install\23.1.0\PSpice.ini file:
.lib "nom_pspti.lib" 
.lib "nom.lib" 

*Analysis directives: 
.TRAN  0 2ms 0 
.OPTIONS ADVCONV
.OPTIONS FILEMODELSEARCH
.PROBE64 V(alias(*)) I(alias(*)) W(alias(*)) D(alias(*)) NOISE(alias(*)) 
.INC "..\SCHEMATIC1.net" 



**** INCLUDING SCHEMATIC1.net ****

**** RESUMING "Simulaçao LEDs.cir" ****
.END

WARNING(ORPSIM-15188): There are no devices in this circuit
